__1zyu_A_rec_1we2_dhk_lig_docked.pdb
 OpenBabel05042118413D

 12 12  0  0  1  0  0  0  0  0999 V2000
    3.2800    0.3760   46.2150 C   0  0  0  0  0  0  0  0  0  0  0  0
    3.5830    1.8770   46.3050 C   0  0  1  0  0  0  0  0  0  0  0  0
    3.9360    2.3720   44.9760 O   0  0  0  0  0  0  0  0  0  0  0  0
    2.4440    2.7410   46.7560 C   0  0  1  0  0  0  0  0  0  0  0  0
    2.7390    4.0810   46.2670 O   0  0  0  0  0  0  0  0  0  0  0  0
    1.1810    2.2540   46.1200 C   0  0  1  0  0  0  0  0  0  0  0  0
    1.9760   -0.0590   46.3910 C   0  0  0  0  0  0  0  0  0  0  0  0
    0.9250    0.8640   46.6750 C   0  0  0  0  0  0  0  0  0  0  0  0
    0.0420    3.1280   46.5240 O   0  0  0  0  0  0  0  0  0  0  0  0
    1.6590   -1.4470   46.2730 C   0  0  0  0  0  0  0  0  0  0  0  0
    1.4980   -2.1710   47.3560 O   0  0  0  0  0  0  0  0  0  0  0  0
    1.5690   -1.8230   45.0410 O   0  0  0  0  0  0  0  0  0  0  0  0
  1  7  2  0  0  0  0
  1  2  1  0  0  0  0
  2  3  1  6  0  0  0
  2  4  1  0  0  0  0
  4  6  1  0  0  0  0
  4  5  1  6  0  0  0
  6  8  1  0  0  0  0
  6  9  1  1  0  0  0
  7 10  1  0  0  0  0
  7  8  1  0  0  0  0
 10 12  2  0  0  0  0
 10 11  1  0  0  0  0
M  END
>  <MODEL>
9

>  <COMPND>
UNNAMED

>  <AUTHOR>
GENERATED BY OPEN BABEL 2.4.90

>  <MASTER>
0    0    0    0    0    0    0    0   12    0   12    0

$$$$
